****** HSPICE -- L-2016.06-1 linux64 (Jun 27 2016) ******
 Input File: Gsd_rupoly_m_tt0p9v25c.sp
 lic:
 lic: FLEXlm: v11.2.1
 lic: USER:   clouser              HOSTNAME: us01dwemt499
 lic: HOSTID: "ac162d75c818"       PID:      21272
 lic: Using FLEXlm license file:
 lic: 26585@us01snpslmd2
 lic: Checkout 1 hspice
 lic: License/Maintenance for hspice will expire on 31-jan-2017/2017.12
 lic: 219(in_use)/10000(total) FLOATING license(s) on SERVER 26585@us01snpslmd2
 lic:
 init: begin read circuit files,  cpu clock=  9.80E-01
       option search = /global/apps/hspice_2016.06-1/hspice/parts/ad
       option search = /global/apps/hspice_2016.06-1/hspice/parts/behav
                         e
       option search = /global/apps/hspice_2016.06-1/hspice/parts/bjt
       option search = /global/apps/hspice_2016.06-1/hspice/parts/burr_
                         brn
       option search = /global/apps/hspice_2016.06-1/hspice/parts/comli
                         near
       option search = /global/apps/hspice_2016.06-1/hspice/parts/dio
       option search = /global/apps/hspice_2016.06-1/hspice/parts/fet
       option search = /global/apps/hspice_2016.06-1/hspice/parts/lin_t
                         ech
       option search = /global/apps/hspice_2016.06-1/hspice/parts/pci
       option search = /global/apps/hspice_2016.06-1/hspice/parts/signe
                         t
       option search = /global/apps/hspice_2016.06-1/hspice/parts/ti
       option search = /global/apps/hspice_2016.06-1/hspice/parts/tline
       option search = /global/apps/hspice_2016.06-1/hspice/parts/xilin
                         x
       option runlvl
       option geoshrink =    0.900
       option geoshrink =    0.900
       option geoshrink =    0.900
       option geoshrink =    0.900
       option geoshrink =    0.900
       option geoshrink =    0.900
       option geoshrink =    0.900
       option geoshrink =    0.900
       option geoshrink =    0.900
       option geoshrink =    0.900
       option geoshrink =    0.900
       option geoshrink =    0.900
       option post =     1.00
       option probe
       option measdgt =     8.00
 init: end read circuit files,  cpu clock=  1.00E+00 peak memory=       200 mb
 init: begin check errors,  cpu clock=  1.00E+00
>error          ***** hspice job aborted
 lic: Release hspice token(s)
